32

C       -3.74718600     1.90516000      -0.51895400     -0.21400511     0.06965512      -0.28412270
C       -3.29459300     0.91121400      -1.55819100     1.69841579      0.33695103      2.07831725
O       -3.59851400     1.02707000      -2.75150800     0.39837655      -0.38099242     0.31157446
N       -2.51785000     -0.10912800     -1.12847900     -2.10021936     -1.93110944     -2.06752628
C       -2.14647500     -0.42444900     0.23701900      2.84230612      3.63866790      -0.77264536
C       -3.07133300     -1.46633400     0.84730400      -0.34824004     -0.87334528     0.36794839
C       -0.64203700     -0.76172000     0.22342100      -2.45307225     -2.76746896     -6.75776835
O       0.12476700      -0.07378100     -0.44937700     -0.07291613     0.90609765      3.89243359
N       -0.29192100     -1.84513500     0.93942300      0.65477476      -0.99243728     -0.03023843
C       1.05075500      -2.38458200     1.13075100      -0.84294083     1.07550404      1.50196083
C       1.92735800      -2.36719000     -0.11459400     -0.10244307     -0.51699422     -0.19820997
C       1.74454000      -1.64197500     2.27020900      1.12592514      -1.45973375     0.00093680
O       1.94483100      -0.42431200     2.22902700      -0.68950746     -0.46677470     1.09349294
N       2.13279700      -2.41628000     3.29598900      0.20998518      0.65428857      -0.70710504
C       2.86253700      -1.87335500     4.42659600      0.01782289      0.15267445      -0.04017561
H       -2.89115200     2.40006300      -0.06095400     -0.39684684     -0.11917501     -0.57219419
H       -4.31449800     1.42035700      0.27443100      0.17331959      0.05057526      -0.53096319
H       -4.37124200     2.64756600      -1.00554800     0.27624885      -0.36754521     0.42735802
H       -2.24220300     -0.76401600     -1.84932900     -0.21463359     0.61659133      0.99447689
H       -2.20616500     0.49649000      0.81764100      -0.94718635     -0.64860849     0.01912729
H       -2.85270500     -1.61903700     1.90411800      -0.27601169     -0.08956506     -0.40377204
H       -4.10037100     -1.11847300     0.76993500      0.48137216      -0.01757387     0.35970693
H       -2.99339500     -2.41796600     0.32108100      -0.04064994     0.78451543      -0.03079577
H       -1.02850900     -2.34883200     1.40634300      1.06291062      1.57141436      0.58386267
H       0.89686700      -3.42168000     1.42518300      -0.02435676     0.60124680      0.28629275
H       2.21656300      -1.35600500     -0.37483400     -0.11758601     -0.30645171     0.08708669
H       1.39277600      -2.81362500     -0.95181100     0.20113895      0.17936728      0.32321922
H       2.81618300      -2.96477500     0.08648800      -0.12452306     0.57040360      -0.35050496
H       1.93311700      -3.40256200     3.26750400      0.11184663      1.00012140      -0.13370131
H       3.08626100      -2.68507200     5.11093800      -0.16165111     0.54395979      -0.33691545
H       3.79172200      -1.41307700     4.09630000      -0.46914635     -0.10691362     0.10199246
H       2.26762900      -1.12089000     4.94102200      0.21559411      -0.39772435     -0.24657961