21
aspirin
C          1.64987        3.66660        0.74292
C          2.76778        3.16599        0.09831
C          3.31994        1.94815        0.46251
C          2.77487        1.22765        1.51041
C          1.67007        1.71453        2.16955
C          1.11477        2.92059        1.80311
C          0.97147        4.94857        0.41559
C          4.19881        4.82489       -0.69600
C          4.68587        5.49631       -1.94388
O          1.44801        5.62130       -0.58875
O         -0.00125        5.32027        1.07919
O          3.34442        3.81319       -0.99428
O          4.48348        5.11414        0.41000
H          4.16491        1.55551       -0.10613
H          3.20428        0.25914        1.77965
H          1.26956        1.13866        3.00296
H          0.24632        3.31781        2.32707
H          5.35451        6.28224       -1.61990
H          3.85272        5.86997       -2.50246
H          5.15172        4.80984       -2.68121
H          0.87490        6.44911       -0.71722