12
benzene
C       0.0000000       1.3874520       0.0000000
C       1.2015690       0.6937260       0.0000000
C       1.2015690       -0.6937260      0.0000000
C       0.0000000       -1.3874520      0.0000000
C       -1.2015690      -0.6937260      0.0000000
C       -1.2015690      0.6937260       0.0000000
H       0.0000000       2.4697420       0.0000000
H       2.1388590       1.2348710       0.0000000
H       2.1388590       -1.2348710      0.0000000
H       0.0000000       -2.4697420      0.0000000
H       -2.1388590      -1.2348710      0.0000000
H       -2.1388590      1.2348710       0.0000000